# Packages
 &PACKAGES
 useGMRedi=.TRUE.
 usePTRACERS=.TRUE.
 useGCHEM=.TRUE.,
 useEXF=.TRUE.,
 useDIAGNOSTICS=.TRUE.,
 useMNC=.TRUE.,
 /
