# Packages
 &PACKAGES
 usePTRACERS=.TRUE.
 useGCHEM=.TRUE.,
 useKPP=.TRUE.,
 useMNC=.TRUE.,
 useEXF=.TRUE,
 useDIAGNOSTICS=.TRUE,
 /
