#
# ***************
# Open boundaries
# ***************
 &OBCS_PARM01
 OB_Jnorth =   76*72,
 OB_Iwest  =   72*1,
#
#OBCSfixTopo=.false.,
#
 useOBCSprescribe=.TRUE.,
#
 OBNsFile='../input/input/OBNs_baltic_76x72.stable',
 OBNtFile='../input/input/OBNt_baltic_76x72.stable',
 OBNuFile='../input/input/OBNu_baltic_76x72.bin',
 OBNvFile='../input/input/OBNv_baltic_76x72.bin',
 OBWsFile='../input/input/OBWs_baltic_76x72.stable',
 OBWtFile='../input/input/OBWt_baltic_76x72.stable',
 OBWuFile='../input/input/OBWu_baltic_76x72.bin',
 OBWvFile='../input/input/OBWv_baltic_76x72.bin',
#
 OBNptrFile(1)='../input/input/OBN_DIC_76x72x24_baltic_128.bin',
 OBWptrFile(1)='../input/input/OBW_DIC_76x72x24_baltic_128.bin',
 OBNptrFile(2)='../input/input/OBN_NH4_76x72x24_baltic_128.bin',
 OBWptrFile(2)='../input/input/OBW_NH4_76x72x24_baltic_128.bin',
 OBNptrFile(3)='../input/input/OBN_NO2_76x72x24_baltic_128.bin',
 OBWptrFile(3)='../input/input/OBW_NO2_76x72x24_baltic_128.bin',
 OBNptrFile(4)='../input/input/OBN_NO3_76x72x24_baltic_128.bin',
 OBWptrFile(4)='../input/input/OBW_NO3_76x72x24_baltic_128.bin',
 OBNptrFile(5)='../input/input/OBN_PO4_76x72x24_baltic_128.bin',
 OBWptrFile(5)='../input/input/OBW_PO4_76x72x24_baltic_128.bin',
 OBNptrFile(6)='../input/input/OBN_SiO2_76x72x24_baltic_128.bin',
 OBWptrFile(6)='../input/input/OBW_SiO2_76x72x24_baltic_128.bin',
 OBNptrFile(7)='../input/input/OBN_FeT_76x72x24_baltic_128.bin',
 OBWptrFile(7)='../input/input/OBW_FeT_76x72x24_baltic_128.bin',
 OBNptrFile(8)='../input/input/OBN_zero_76x72x24_baltic_128.bin',
 OBWptrFile(8)='../input/input/OBW_zero_76x72x24_baltic_128.bin',
 OBNptrFile(9)='../input/input/OBN_DON_76x72x24_baltic_128.bin',
 OBWptrFile(9)='../input/input/OBW_DON_76x72x24_baltic_128.bin',
 OBNptrFile(10)='../input/input/OBN_DOP_76x72x24_baltic_128.bin',
 OBWptrFile(10)='../input/input/OBW_DOP_76x72x24_baltic_128.bin',
 OBNptrFile(11)='../input/input/OBN_DOFe_76x72x24_baltic_128.bin',
 OBWptrFile(11)='../input/input/OBW_DOFe_76x72x24_baltic_128.bin',
 OBNptrFile(12)='../input/input/OBN_zero_76x72x24_baltic_128.bin',
 OBWptrFile(12)='../input/input/OBW_zero_76x72x24_baltic_128.bin',
 OBNptrFile(13)='../input/input/OBN_PON_76x72x24_baltic_128.bin',
 OBWptrFile(13)='../input/input/OBW_PON_76x72x24_baltic_128.bin',
 OBNptrFile(14)='../input/input/OBN_POP_76x72x24_baltic_128.bin',
 OBWptrFile(14)='../input/input/OBW_POP_76x72x24_baltic_128.bin',
 OBNptrFile(15)='../input/input/OBN_POSi_76x72x24_baltic_128.bin',
 OBWptrFile(15)='../input/input/OBW_POSi_76x72x24_baltic_128.bin',
 OBNptrFile(16)='../input/input/OBN_POFe_76x72x24_baltic_128.bin',
 OBWptrFile(16)='../input/input/OBW_POFe_76x72x24_baltic_128.bin',
 OBNptrFile(17)='../input/input/OBN_zero_76x72x24_baltic_128.bin',
 OBWptrFile(17)='../input/input/OBW_zero_76x72x24_baltic_128.bin',
 OBNptrFile(18)='../input/input/OBN_Phy01C_76x72x24_baltic_128.bin',
 OBWptrFile(18)='../input/input/OBW_Phy01C_76x72x24_baltic_128.bin',
 OBNptrFile(19)='../input/input/OBN_Phy02C_76x72x24_baltic_128.bin',
 OBWptrFile(19)='../input/input/OBW_Phy02C_76x72x24_baltic_128.bin',
 OBNptrFile(20)='../input/input/OBN_Phy03C_76x72x24_baltic_128.bin',
 OBWptrFile(20)='../input/input/OBW_Phy03C_76x72x24_baltic_128.bin',
 OBNptrFile(21)='../input/input/OBN_Phy04C_76x72x24_baltic_128.bin',
 OBWptrFile(21)='../input/input/OBW_Phy04C_76x72x24_baltic_128.bin',
 OBNptrFile(22)='../input/input/OBN_Phy05C_76x72x24_baltic_128.bin',
 OBWptrFile(22)='../input/input/OBW_Phy05C_76x72x24_baltic_128.bin',
 OBNptrFile(23)='../input/input/OBN_Phy06C_76x72x24_baltic_128.bin',
 OBWptrFile(23)='../input/input/OBW_Phy06C_76x72x24_baltic_128.bin',
 OBNptrFile(24)='../input/input/OBN_Phy07C_76x72x24_baltic_128.bin',
 OBWptrFile(24)='../input/input/OBW_Phy07C_76x72x24_baltic_128.bin',
 OBNptrFile(25)='../input/input/OBN_Phy08C_76x72x24_baltic_128.bin',
 OBWptrFile(25)='../input/input/OBW_Phy08C_76x72x24_baltic_128.bin',
 OBNptrFile(26)='../input/input/OBN_Phy09C_76x72x24_baltic_128.bin',
 OBWptrFile(26)='../input/input/OBW_Phy09C_76x72x24_baltic_128.bin',
 OBNptrFile(27)='../input/input/OBN_Phy10C_76x72x24_baltic_128.bin',
 OBWptrFile(27)='../input/input/OBW_Phy10C_76x72x24_baltic_128.bin',
 OBNptrFile(28)='../input/input/OBN_Phy11C_76x72x24_baltic_128.bin',
 OBWptrFile(28)='../input/input/OBW_Phy11C_76x72x24_baltic_128.bin',
 OBNptrFile(29)='../input/input/OBN_Phy12C_76x72x24_baltic_128.bin',
 OBWptrFile(29)='../input/input/OBW_Phy12C_76x72x24_baltic_128.bin',
 OBNptrFile(30)='../input/input/OBN_Phy13C_76x72x24_baltic_128.bin',
 OBWptrFile(30)='../input/input/OBW_Phy13C_76x72x24_baltic_128.bin',
 OBNptrFile(31)='../input/input/OBN_Phy14C_76x72x24_baltic_128.bin',
 OBWptrFile(31)='../input/input/OBW_Phy14C_76x72x24_baltic_128.bin',
 OBNptrFile(32)='../input/input/OBN_Phy15C_76x72x24_baltic_128.bin',
 OBWptrFile(32)='../input/input/OBW_Phy15C_76x72x24_baltic_128.bin',
 OBNptrFile(33)='../input/input/OBN_Phy16C_76x72x24_baltic_128.bin',
 OBWptrFile(33)='../input/input/OBW_Phy16C_76x72x24_baltic_128.bin',
 OBNptrFile(34)='../input/input/OBN_Phy17C_76x72x24_baltic_128.bin',
 OBWptrFile(34)='../input/input/OBW_Phy17C_76x72x24_baltic_128.bin',
 OBNptrFile(35)='../input/input/OBN_Phy18C_76x72x24_baltic_128.bin',
 OBWptrFile(35)='../input/input/OBW_Phy18C_76x72x24_baltic_128.bin',
 OBNptrFile(36)='../input/input/OBN_Phy19C_76x72x24_baltic_128.bin',
 OBWptrFile(36)='../input/input/OBW_Phy19C_76x72x24_baltic_128.bin',
 OBNptrFile(37)='../input/input/OBN_Phy20C_76x72x24_baltic_128.bin',
 OBWptrFile(37)='../input/input/OBW_Phy20C_76x72x24_baltic_128.bin',
 OBNptrFile(38)='../input/input/OBN_Phy21C_76x72x24_baltic_128.bin',
 OBWptrFile(38)='../input/input/OBW_Phy21C_76x72x24_baltic_128.bin',
 OBNptrFile(39)='../input/input/OBN_Phy22C_76x72x24_baltic_128.bin',
 OBWptrFile(39)='../input/input/OBW_Phy22C_76x72x24_baltic_128.bin',
 OBNptrFile(40)='../input/input/OBN_Phy23C_76x72x24_baltic_128.bin',
 OBWptrFile(40)='../input/input/OBW_Phy23C_76x72x24_baltic_128.bin',
 OBNptrFile(41)='../input/input/OBN_Phy24C_76x72x24_baltic_128.bin',
 OBWptrFile(41)='../input/input/OBW_Phy24C_76x72x24_baltic_128.bin',
 OBNptrFile(42)='../input/input/OBN_Phy25C_76x72x24_baltic_128.bin',
 OBWptrFile(42)='../input/input/OBW_Phy25C_76x72x24_baltic_128.bin',
 OBNptrFile(43)='../input/input/OBN_Phy26C_76x72x24_baltic_128.bin',
 OBWptrFile(43)='../input/input/OBW_Phy26C_76x72x24_baltic_128.bin',
 OBNptrFile(44)='../input/input/OBN_Phy27C_76x72x24_baltic_128.bin',
 OBWptrFile(44)='../input/input/OBW_Phy27C_76x72x24_baltic_128.bin',
 OBNptrFile(45)='../input/input/OBN_Phy28C_76x72x24_baltic_128.bin',
 OBWptrFile(45)='../input/input/OBW_Phy28C_76x72x24_baltic_128.bin',
 OBNptrFile(46)='../input/input/OBN_Phy29C_76x72x24_baltic_128.bin',
 OBWptrFile(46)='../input/input/OBW_Phy29C_76x72x24_baltic_128.bin',
 OBNptrFile(47)='../input/input/OBN_Phy30C_76x72x24_baltic_128.bin',
 OBWptrFile(47)='../input/input/OBW_Phy30C_76x72x24_baltic_128.bin',
 OBNptrFile(48)='../input/input/OBN_Phy31C_76x72x24_baltic_128.bin',
 OBWptrFile(48)='../input/input/OBW_Phy31C_76x72x24_baltic_128.bin',
 OBNptrFile(49)='../input/input/OBN_Phy32C_76x72x24_baltic_128.bin',
 OBWptrFile(49)='../input/input/OBW_Phy32C_76x72x24_baltic_128.bin',
 OBNptrFile(50)='../input/input/OBN_Phy33C_76x72x24_baltic_128.bin',
 OBWptrFile(50)='../input/input/OBW_Phy33C_76x72x24_baltic_128.bin',
 OBNptrFile(51)='../input/input/OBN_Phy34C_76x72x24_baltic_128.bin',
 OBWptrFile(51)='../input/input/OBW_Phy34C_76x72x24_baltic_128.bin',
 OBNptrFile(52)='../input/input/OBN_Phy35C_76x72x24_baltic_128.bin',
 OBWptrFile(52)='../input/input/OBW_Phy35C_76x72x24_baltic_128.bin',
 OBNptrFile(53)='../input/input/OBN_Phy36C_76x72x24_baltic_128.bin',
 OBWptrFile(53)='../input/input/OBW_Phy36C_76x72x24_baltic_128.bin',
 OBNptrFile(54)='../input/input/OBN_Phy37C_76x72x24_baltic_128.bin',
 OBWptrFile(54)='../input/input/OBW_Phy37C_76x72x24_baltic_128.bin',
 OBNptrFile(55)='../input/input/OBN_Phy38C_76x72x24_baltic_128.bin',
 OBWptrFile(55)='../input/input/OBW_Phy38C_76x72x24_baltic_128.bin',
 OBNptrFile(56)='../input/input/OBN_Phy39C_76x72x24_baltic_128.bin',
 OBWptrFile(56)='../input/input/OBW_Phy39C_76x72x24_baltic_128.bin',
 OBNptrFile(57)='../input/input/OBN_Phy40C_76x72x24_baltic_128.bin',
 OBWptrFile(57)='../input/input/OBW_Phy40C_76x72x24_baltic_128.bin',
 OBNptrFile(58)='../input/input/OBN_Phy41C_76x72x24_baltic_128.bin',
 OBWptrFile(58)='../input/input/OBW_Phy41C_76x72x24_baltic_128.bin',
 OBNptrFile(59)='../input/input/OBN_Phy42C_76x72x24_baltic_128.bin',
 OBWptrFile(59)='../input/input/OBW_Phy42C_76x72x24_baltic_128.bin',
 OBNptrFile(60)='../input/input/OBN_Phy43C_76x72x24_baltic_128.bin',
 OBWptrFile(60)='../input/input/OBW_Phy43C_76x72x24_baltic_128.bin',
 OBNptrFile(61)='../input/input/OBN_Phy44C_76x72x24_baltic_128.bin',
 OBWptrFile(61)='../input/input/OBW_Phy44C_76x72x24_baltic_128.bin',
 OBNptrFile(62)='../input/input/OBN_Phy45C_76x72x24_baltic_128.bin',
 OBWptrFile(62)='../input/input/OBW_Phy45C_76x72x24_baltic_128.bin',
 OBNptrFile(63)='../input/input/OBN_Phy46C_76x72x24_baltic_128.bin',
 OBWptrFile(63)='../input/input/OBW_Phy46C_76x72x24_baltic_128.bin',
 OBNptrFile(64)='../input/input/OBN_Phy47C_76x72x24_baltic_128.bin',
 OBWptrFile(64)='../input/input/OBW_Phy47C_76x72x24_baltic_128.bin',
 OBNptrFile(65)='../input/input/OBN_Phy48C_76x72x24_baltic_128.bin',
 OBWptrFile(65)='../input/input/OBW_Phy48C_76x72x24_baltic_128.bin',
 OBNptrFile(66)='../input/input/OBN_Phy49C_76x72x24_baltic_128.bin',
 OBWptrFile(66)='../input/input/OBW_Phy49C_76x72x24_baltic_128.bin',
 OBNptrFile(67)='../input/input/OBN_Phy50C_76x72x24_baltic_128.bin',
 OBWptrFile(67)='../input/input/OBW_Phy50C_76x72x24_baltic_128.bin',
 OBNptrFile(68)='../input/input/OBN_Phy51C_76x72x24_baltic_128.bin',
 OBWptrFile(68)='../input/input/OBW_Phy51C_76x72x24_baltic_128.bin',
 OBNptrFile(69)='../input/input/OBN_Phy52C_76x72x24_baltic_128.bin',
 OBWptrFile(69)='../input/input/OBW_Phy52C_76x72x24_baltic_128.bin',
 OBNptrFile(70)='../input/input/OBN_Phy53C_76x72x24_baltic_128.bin',
 OBWptrFile(70)='../input/input/OBW_Phy53C_76x72x24_baltic_128.bin',
 OBNptrFile(71)='../input/input/OBN_Phy54C_76x72x24_baltic_128.bin',
 OBWptrFile(71)='../input/input/OBW_Phy54C_76x72x24_baltic_128.bin',
 OBNptrFile(72)='../input/input/OBN_Phy55C_76x72x24_baltic_128.bin',
 OBWptrFile(72)='../input/input/OBW_Phy55C_76x72x24_baltic_128.bin',
 OBNptrFile(73)='../input/input/OBN_Phy56C_76x72x24_baltic_128.bin',
 OBWptrFile(73)='../input/input/OBW_Phy56C_76x72x24_baltic_128.bin',
 OBNptrFile(74)='../input/input/OBN_Phy57C_76x72x24_baltic_128.bin',
 OBWptrFile(74)='../input/input/OBW_Phy57C_76x72x24_baltic_128.bin',
 OBNptrFile(75)='../input/input/OBN_Phy58C_76x72x24_baltic_128.bin',
 OBWptrFile(75)='../input/input/OBW_Phy58C_76x72x24_baltic_128.bin',
 OBNptrFile(76)='../input/input/OBN_Phy59C_76x72x24_baltic_128.bin',
 OBWptrFile(76)='../input/input/OBW_Phy59C_76x72x24_baltic_128.bin',
 OBNptrFile(77)='../input/input/OBN_Phy60C_76x72x24_baltic_128.bin',
 OBWptrFile(77)='../input/input/OBW_Phy60C_76x72x24_baltic_128.bin',
 OBNptrFile(78)='../input/input/OBN_Phy61C_76x72x24_baltic_128.bin',
 OBWptrFile(78)='../input/input/OBW_Phy61C_76x72x24_baltic_128.bin',
 OBNptrFile(79)='../input/input/OBN_Phy62C_76x72x24_baltic_128.bin',
 OBWptrFile(79)='../input/input/OBW_Phy62C_76x72x24_baltic_128.bin',
 OBNptrFile(80)='../input/input/OBN_Phy63C_76x72x24_baltic_128.bin',
 OBWptrFile(80)='../input/input/OBW_Phy63C_76x72x24_baltic_128.bin',
 OBNptrFile(81)='../input/input/OBN_Phy64C_76x72x24_baltic_128.bin',
 OBWptrFile(81)='../input/input/OBW_Phy64C_76x72x24_baltic_128.bin',
 OBNptrFile(82)='../input/input/OBN_Phy65C_76x72x24_baltic_128.bin',
 OBWptrFile(82)='../input/input/OBW_Phy65C_76x72x24_baltic_128.bin',
 OBNptrFile(83)='../input/input/OBN_Phy66C_76x72x24_baltic_128.bin',
 OBWptrFile(83)='../input/input/OBW_Phy66C_76x72x24_baltic_128.bin',
 OBNptrFile(84)='../input/input/OBN_Phy67C_76x72x24_baltic_128.bin',
 OBWptrFile(84)='../input/input/OBW_Phy67C_76x72x24_baltic_128.bin',
 OBNptrFile(85)='../input/input/OBN_Phy68C_76x72x24_baltic_128.bin',
 OBWptrFile(85)='../input/input/OBW_Phy68C_76x72x24_baltic_128.bin',
 OBNptrFile(86)='../input/input/OBN_Phy69C_76x72x24_baltic_128.bin',
 OBWptrFile(86)='../input/input/OBW_Phy69C_76x72x24_baltic_128.bin',
 OBNptrFile(87)='../input/input/OBN_Phy70C_76x72x24_baltic_128.bin',
 OBWptrFile(87)='../input/input/OBW_Phy70C_76x72x24_baltic_128.bin',
 OBNptrFile(88)='../input/input/OBN_Phy71C_76x72x24_baltic_128.bin',
 OBWptrFile(88)='../input/input/OBW_Phy71C_76x72x24_baltic_128.bin',
 OBNptrFile(89)='../input/input/OBN_Phy72C_76x72x24_baltic_128.bin',
 OBWptrFile(89)='../input/input/OBW_Phy72C_76x72x24_baltic_128.bin',
 OBNptrFile(90)='../input/input/OBN_Phy73C_76x72x24_baltic_128.bin',
 OBWptrFile(90)='../input/input/OBW_Phy73C_76x72x24_baltic_128.bin',
 OBNptrFile(91)='../input/input/OBN_Phy74C_76x72x24_baltic_128.bin',
 OBWptrFile(91)='../input/input/OBW_Phy74C_76x72x24_baltic_128.bin',
 OBNptrFile(92)='../input/input/OBN_Phy75C_76x72x24_baltic_128.bin',
 OBWptrFile(92)='../input/input/OBW_Phy75C_76x72x24_baltic_128.bin',
 OBNptrFile(93)='../input/input/OBN_Phy76C_76x72x24_baltic_128.bin',
 OBWptrFile(93)='../input/input/OBW_Phy76C_76x72x24_baltic_128.bin',
 OBNptrFile(94)='../input/input/OBN_Phy77C_76x72x24_baltic_128.bin',
 OBWptrFile(94)='../input/input/OBW_Phy77C_76x72x24_baltic_128.bin',
 OBNptrFile(95)='../input/input/OBN_Phy78C_76x72x24_baltic_128.bin',
 OBWptrFile(95)='../input/input/OBW_Phy78C_76x72x24_baltic_128.bin',
 OBNptrFile(96)='../input/input/OBN_ZOO1C_76x72x24_baltic_128.bin',
 OBWptrFile(96)='../input/input/OBW_ZOO1C_76x72x24_baltic_128.bin',
 OBNptrFile(97)='../input/input/OBN_ZOO2C_76x72x24_baltic_128.bin',
 OBWptrFile(97)='../input/input/OBW_ZOO2C_76x72x24_baltic_128.bin',
#
 &

# *****************************************
# Orlanski Boundary Condition Parameters.
# *****************************************
# &OBCS_PARM02
# cvelTimeScale = 2000.,
# /

# *****************************************
# Sponge Layer Parameters.
# *****************************************
# &OBCS_PARM03
# Urelaxobcsinner=7776000.E0,
# Urelaxobcsbound=2592000.E0,
# Vrelaxobcsinner=7776000.E0,
# Vrelaxobcsbound=2592000.E0,
# spongeThickness=10,
# /
